<?xml version="1.0" encoding="ISO-8859-1"?>
<!-- This file was created with FEBio Studio version 1.0.0 -->
<!--
 This file was created with FEBio Studio version 1.0.0 
-->
<febio_spec version="2.5">
	<Module type="solid"/>
	<Control>
		<time_steps>20</time_steps>
		<step_size>0.1</step_size>
		<max_refs>15</max_refs>
		<max_ups>10</max_ups>
		<diverge_reform>1</diverge_reform>
		<reform_each_time_step>1</reform_each_time_step>
		<dtol>0.001</dtol>
		<etol>0.01</etol>
		<rtol>0</rtol>
		<lstol>0.9</lstol>
		<min_residual>1e-20</min_residual>
		<qnmethod>0</qnmethod>
		<rhoi>0</rhoi>
		<time_stepper>
			<dtmin>0.01</dtmin>
			<dtmax>0.1</dtmax>
			<max_retries>5</max_retries>
			<opt_iter>10</opt_iter>
		</time_stepper>
		<analysis type="static"/>
	</Control>
	<Globals>
		<Constants>
			<T>293</T>
			<R>0.008314</R>
			<Fc>9.65e-05</Fc>
		</Constants>
	</Globals>
	<Material>
		<material id="1" name="Expander" type="neo-Hookean">
			<density>1</density>
			<E>6650</E>
			<v>0.3</v>
		</material>
		<material id="2" name="Mucosa" type="multigeneration">
			<generation type="generation">
				<start_time>0</start_time>
				<solid type="neo-Hookean">
					<density>1</density>
					<E>1980.82</E>
					<v>0.45</v>
				</solid>
				</generation>
		</material>
		<material id="3" name="Bone" type="multigeneration">
			<generation type="generation">
				<start_time>0</start_time>
				<solid type="Holmes-Mow">
					<density>1</density>
					<E>1.3e+06</E>
					<v>0.28</v>
					<beta>264.12</beta>
				</solid>
			</generation>
			<generation type="generation">
				<start_time>0.4</start_time>
				<solid type="Holmes-Mow">
					<density>1</density>
					<E>1.3e+06</E>
					<v>0.28</v>
					<beta>264.12</beta>
				</solid>
			</generation>
			<generation type="generation">
				<start_time>0.8</start_time>
				<solid type="Holmes-Mow">
					<density>1</density>
					<E>1.3e+06</E>
					<v>0.28</v>
					<beta>264.12</beta>
				</solid>
			</generation>
			<generation type="generation">
				<start_time>1.2</start_time>
				<solid type="Holmes-Mow">
					<density>1</density>
					<E>1.3e+06</E>
					<v>0.28</v>
					<beta>264.12</beta>
				</solid>
			</generation>
			<generation type="generation">
				<start_time>1.6</start_time>
				<solid type="Holmes-Mow">
					<density>1</density>
					<E>1.3e+06</E>
					<v>0.28</v>
					<beta>264.12</beta>
				</solid>
			</generation>
		</material>
	</Material>
	<Geometry>
		<Nodes name="Object01">
			<node id="1"> -3.5355339e-01, -3.5355339e-01,  3.0000000e+00</node>
			<node id="2">  0.0000000e+00, -3.5355339e-01,  3.0000000e+00</node>
			<node id="3">  3.5355339e-01, -3.5355339e-01,  3.0000000e+00</node>
			<node id="4"> -3.5355339e-01,  0.0000000e+00,  3.0000000e+00</node>
			<node id="5">  0.0000000e+00,  0.0000000e+00,  3.0000000e+00</node>
			<node id="6">  3.5355339e-01,  0.0000000e+00,  3.0000000e+00</node>
			<node id="7"> -3.5355339e-01,  3.5355339e-01,  3.0000000e+00</node>
			<node id="8">  0.0000000e+00,  3.5355339e-01,  3.0000000e+00</node>
			<node id="9">  3.5355339e-01,  3.5355339e-01,  3.0000000e+00</node>
			<node id="10"> -3.5355339e-01, -3.5355339e-01,  3.3535534e+00</node>
			<node id="11">  0.0000000e+00, -3.5355339e-01,  3.3535534e+00</node>
			<node id="12">  3.5355339e-01, -3.5355339e-01,  3.3535534e+00</node>
			<node id="13"> -3.5355339e-01,  0.0000000e+00,  3.3535534e+00</node>
			<node id="14">  0.0000000e+00,  0.0000000e+00,  3.3535534e+00</node>
			<node id="15">  3.5355339e-01,  0.0000000e+00,  3.3535534e+00</node>
			<node id="16"> -3.5355339e-01,  3.5355339e-01,  3.3535534e+00</node>
			<node id="17">  0.0000000e+00,  3.5355339e-01,  3.3535534e+00</node>
			<node id="18">  3.5355339e-01,  3.5355339e-01,  3.3535534e+00</node>
			<node id="19"> -7.0710678e-01, -7.0710678e-01,  3.0000000e+00</node>
			<node id="20">  7.0710678e-01, -7.0710678e-01,  3.0000000e+00</node>
<!-- ... 4023 like lines cut -->
		</Nodes>
		<Elements type="hex8" mat="1" name="Blunted Tip">
			<elem id="1">     1,    34,   266,    41,    76,   302,   806,   331</elem>
			<elem id="2">    34,    33,   267,   266,   302,   303,   807,   806</elem>
			<elem id="3">    33,    32,   268,   267,   303,   304,   808,   807</elem>
			<elem id="4">    32,     2,    37,   268,   304,    68,   311,   808</elem>
			<elem id="5">    41,   266,   269,    42,   331,   806,   809,   330</elem>
			<elem id="6">   266,   267,   270,   269,   806,   807,   810,   809</elem>
			<elem id="7">   267,   268,   271,   270,   807,   808,   811,   810</elem>
			<elem id="8">   268,    37,    36,   271,   808,   311,   312,   811</elem>
			<elem id="9">    42,   269,   272,    43,   330,   809,   812,   329</elem>
			<elem id="10">   269,   270,   273,   272,   809,   810,   813,   812</elem>
			<elem id="11">   270,   271,   274,   273,   810,   811,   814,   813</elem>
			<elem id="12">   271,    36,    35,   274,   811,   312,   313,   814</elem>
			<elem id="13">    43,   272,    38,     4,   329,   812,   322,    83</elem>
			<elem id="14">   272,   273,    39,    38,   812,   813,   321,   322</elem>
			<elem id="15">   273,   274,    40,    39,   813,   814,   320,   321</elem>
			<elem id="16">   274,    35,     5,    40,   814,   313,    77,   320</elem>
			<elem id="17">    76,   302,   806,   331,    75,   305,   815,   334</elem>
			<elem id="18">   302,   303,   807,   806,   305,   306,   816,   815</elem>
			<elem id="19">   303,   304,   808,   807,   306,   307,   817,   816</elem>
			<elem id="20">   304,    68,   311,   808,   307,    69,   314,   817</elem>
<!-- ... 1004 like lines cut -->
		</Elements>
		<Elements type="hex8" mat="1" name="Cone">
			<elem id="1025">  1238,  1259,  1518,  1290,  1271,  1452,  2052,  1499</elem>
			<elem id="1026">  1259,  1260,  1519,  1518,  1452,  1453,  2053,  2052</elem>
			<elem id="1027">  1260,  1261,  1520,  1519,  1453,  1454,  2054,  2053</elem>
			<elem id="1028">  1261,  1239,  1272,  1520,  1454,  1262,  1467,  2054</elem>
			<elem id="1029">  1290,  1518,  1515,  1289,  1499,  2052,  2055,  1498</elem>
			<elem id="1030">  1518,  1519,  1516,  1515,  2052,  2053,  2056,  2055</elem>
			<elem id="1031">  1519,  1520,  1517,  1516,  2053,  2054,  2057,  2056</elem>
			<elem id="1032">  1520,  1272,  1273,  1517,  2054,  1467,  1468,  2057</elem>
			<elem id="1033">  1289,  1515,  1512,  1288,  1498,  2055,  2058,  1497</elem>
			<elem id="1034">  1515,  1516,  1513,  1512,  2055,  2056,  2059,  2058</elem>
			<elem id="1035">  1516,  1517,  1514,  1513,  2056,  2057,  2060,  2059</elem>
			<elem id="1036">  1517,  1273,  1274,  1514,  2057,  1468,  1469,  2060</elem>
			<elem id="1037">  1288,  1512,  1282,  1241,  1497,  2058,  1484,  1283</elem>
			<elem id="1038">  1512,  1513,  1281,  1282,  2058,  2059,  1483,  1484</elem>
			<elem id="1039">  1513,  1514,  1280,  1281,  2059,  2060,  1482,  1483</elem>
			<elem id="1040">  1514,  1274,  1242,  1280,  2060,  1469,  1275,  1482</elem>
			<elem id="1041">  1271,  1452,  2052,  1499,  1270,  1455,  2061,  1502</elem>
			<elem id="1042">  1452,  1453,  2053,  2052,  1455,  1456,  2062,  2061</elem>
			<elem id="1043">  1453,  1454,  2054,  2053,  1456,  1457,  2063,  2062</elem>
			<elem id="1044">  1454,  1262,  1467,  2054,  1457,  1263,  1470,  2063</elem>
<!-- ... 1132 like lines cut -->
		</Elements>
		<Elements type="hex8" mat="3" name="Bone">
			<elem id="2177">  2592,  2658,  2664,  2598,  2593,  2659,  2665,  2599</elem>
			<elem id="2178">  2593,  2659,  2665,  2599,  2594,  2660,  2666,  2600</elem>
			<elem id="2179">  2594,  2660,  2666,  2600,  2595,  2661,  2667,  2601</elem>
			<elem id="2180">  2595,  2661,  2667,  2601,  2596,  2662,  2668,  2602</elem>
			<elem id="2181">  2596,  2662,  2668,  2602,  2597,  2663,  2669,  2603</elem>
			<elem id="2182">  2598,  2664,  2670,  2604,  2599,  2665,  2671,  2605</elem>
			<elem id="2183">  2599,  2665,  2671,  2605,  2600,  2666,  2672,  2606</elem>
			<elem id="2184">  2600,  2666,  2672,  2606,  2601,  2667,  2673,  2607</elem>
			<elem id="2185">  2601,  2667,  2673,  2607,  2602,  2668,  2674,  2608</elem>
			<elem id="2186">  2602,  2668,  2674,  2608,  2603,  2669,  2675,  2609</elem>
			<elem id="2187">  2604,  2670,  2676,  2610,  2605,  2671,  2677,  2611</elem>
			<elem id="2188">  2605,  2671,  2677,  2611,  2606,  2672,  2678,  2612</elem>
			<elem id="2189">  2606,  2672,  2678,  2612,  2607,  2673,  2679,  2613</elem>
			<elem id="2190">  2607,  2673,  2679,  2613,  2608,  2674,  2680,  2614</elem>
			<elem id="2191">  2608,  2674,  2680,  2614,  2609,  2675,  2681,  2615</elem>
			<elem id="2192">  2610,  2676,  2682,  2616,  2611,  2677,  2683,  2617</elem>
			<elem id="2193">  2611,  2677,  2683,  2617,  2612,  2678,  2684,  2618</elem>
			<elem id="2194">  2612,  2678,  2684,  2618,  2613,  2679,  2685,  2619</elem>
			<elem id="2195">  2613,  2679,  2685,  2619,  2614,  2680,  2686,  2620</elem>
			<elem id="2196">  2614,  2680,  2686,  2620,  2615,  2681,  2687,  2621</elem>
<!-- ... 480 like lines cut -->
		</Elements>
		<Elements type="hex8" mat="2" name="Mucosa">
			<elem id="2677">  3318,  3384,  3390,  3324,  3319,  3385,  3391,  3325</elem>
			<elem id="2678">  3319,  3385,  3391,  3325,  3320,  3386,  3392,  3326</elem>
			<elem id="2679">  3320,  3386,  3392,  3326,  3321,  3387,  3393,  3327</elem>
			<elem id="2680">  3321,  3387,  3393,  3327,  3322,  3388,  3394,  3328</elem>
			<elem id="2681">  3322,  3388,  3394,  3328,  3323,  3389,  3395,  3329</elem>
			<elem id="2682">  3324,  3390,  3396,  3330,  3325,  3391,  3397,  3331</elem>
			<elem id="2683">  3325,  3391,  3397,  3331,  3326,  3392,  3398,  3332</elem>
			<elem id="2684">  3326,  3392,  3398,  3332,  3327,  3393,  3399,  3333</elem>
			<elem id="2685">  3327,  3393,  3399,  3333,  3328,  3394,  3400,  3334</elem>
			<elem id="2686">  3328,  3394,  3400,  3334,  3329,  3395,  3401,  3335</elem>
			<elem id="2687">  3330,  3396,  3402,  3336,  3331,  3397,  3403,  3337</elem>
			<elem id="2688">  3331,  3397,  3403,  3337,  3332,  3398,  3404,  3338</elem>
			<elem id="2689">  3332,  3398,  3404,  3338,  3333,  3399,  3405,  3339</elem>
			<elem id="2690">  3333,  3399,  3405,  3339,  3334,  3400,  3406,  3340</elem>
			<elem id="2691">  3334,  3400,  3406,  3340,  3335,  3401,  3407,  3341</elem>
			<elem id="2692">  3336,  3402,  3408,  3342,  3337,  3403,  3409,  3343</elem>
			<elem id="2693">  3337,  3403,  3409,  3343,  3338,  3404,  3410,  3344</elem>
			<elem id="2694">  3338,  3404,  3410,  3344,  3339,  3405,  3411,  3345</elem>
			<elem id="2695">  3339,  3405,  3411,  3345,  3340,  3406,  3412,  3346</elem>
			<elem id="2696">  3340,  3406,  3412,  3346,  3341,  3407,  3413,  3347</elem>
<!-- ... 480 like lines cut -->
		</Elements>
		<NodeSet name="MucosaFixed">
			<node id="3318"/>
			<node id="3319"/>
			<node id="3320"/>
			<node id="3321"/>
			<node id="3322"/>
			<node id="3323"/>
			<node id="3324"/>
			<node id="3325"/>
			<node id="3326"/>
			<node id="3327"/>
			<node id="3328"/>
			<node id="3329"/>
			<node id="3330"/>
			<node id="3331"/>
			<node id="3332"/>
			<node id="3333"/>
			<node id="3334"/>
			<node id="3335"/>
			<node id="3336"/>
			<node id="3337"/>
<!-- ... 221 like lines cut -->
		</NodeSet>
		<NodeSet name="BoneFixed">
			<node id="2592"/>
			<node id="2593"/>
			<node id="2594"/>
			<node id="2595"/>
			<node id="2596"/>
			<node id="2597"/>
			<node id="2598"/>
			<node id="2599"/>
			<node id="2600"/>
			<node id="2601"/>
			<node id="2602"/>
			<node id="2603"/>
			<node id="2604"/>
			<node id="2605"/>
			<node id="2606"/>
			<node id="2607"/>
			<node id="2608"/>
			<node id="2609"/>
			<node id="2610"/>
			<node id="2611"/>
<!-- ... 220 like lines cut -->
		</NodeSet>
		<NodeSet name="ExFixed">
			<node id="1"/>
			<node id="2"/>
			<node id="3"/>
			<node id="4"/>
			<node id="6"/>
			<node id="7"/>
			<node id="8"/>
			<node id="9"/>
			<node id="19"/>
			<node id="20"/>
			<node id="21"/>
			<node id="22"/>
			<node id="23"/>
			<node id="24"/>
			<node id="25"/>
			<node id="26"/>
			<node id="27"/>
			<node id="28"/>
			<node id="29"/>
			<node id="30"/>
<!-- ... 712 like lines cut -->
		</NodeSet>
		<NodeSet name="ExRotationFiex">
			<node id="1"/>
			<node id="2"/>
			<node id="3"/>
			<node id="4"/>
			<node id="6"/>
			<node id="7"/>
			<node id="8"/>
			<node id="9"/>
			<node id="19"/>
			<node id="20"/>
			<node id="21"/>
			<node id="22"/>
			<node id="23"/>
			<node id="24"/>
			<node id="25"/>
			<node id="26"/>
			<node id="27"/>
			<node id="28"/>
			<node id="29"/>
			<node id="30"/>
<!-- ... 712 like lines cut -->
		</NodeSet>
		<NodeSet name="MucosaMovement">
			<node id="3318"/>
			<node id="3319"/>
			<node id="3320"/>
			<node id="3321"/>
			<node id="3322"/>
			<node id="3323"/>
			<node id="3324"/>
			<node id="3325"/>
			<node id="3326"/>
			<node id="3327"/>
			<node id="3328"/>
			<node id="3329"/>
			<node id="3330"/>
			<node id="3331"/>
			<node id="3332"/>
			<node id="3333"/>
			<node id="3334"/>
			<node id="3335"/>
			<node id="3336"/>
			<node id="3337"/>
<!-- ... 220 like lines cut -->
		</NodeSet>
		<Surface name="Mucosa:Expander_master">
			<quad4 id="1">    19,   136,   473,   146</quad4>
			<quad4 id="2">   136,   135,   474,   473</quad4>
			<quad4 id="3">   135,   134,   475,   474</quad4>
			<quad4 id="4">   134,  1255,   152,   475</quad4>
			<quad4 id="5">   146,   473,   476,   147</quad4>
			<quad4 id="6">   473,   474,   477,   476</quad4>
			<quad4 id="7">   474,   475,   478,   477</quad4>
			<quad4 id="8">   475,   152,   153,   478</quad4>
			<quad4 id="9">   147,   476,   479,   148</quad4>
			<quad4 id="10">   476,   477,   480,   479</quad4>
			<quad4 id="11">   477,   478,   481,   480</quad4>
			<quad4 id="12">   478,   153,   154,   481</quad4>
			<quad4 id="13">   148,   479,   157,    23</quad4>
			<quad4 id="14">   479,   480,   156,   157</quad4>
			<quad4 id="15">   480,   481,   155,   156</quad4>
			<quad4 id="16">   481,   154,    24,   155</quad4>
			<quad4 id="17">  1255,   142,   500,   152</quad4>
			<quad4 id="18">   142,   141,   501,   500</quad4>
			<quad4 id="19">   141,   140,   502,   501</quad4>
			<quad4 id="20">   140,    20,   161,   502</quad4>
<!-- ... 492 like lines cut -->
		</Surface>
		<Surface name="Mucosa:Expander_slave">
			<quad4 id="1">  3378,  3444,  3438,  3372</quad4>
			<quad4 id="2">  3372,  3438,  3432,  3366</quad4>
			<quad4 id="3">  3366,  3432,  3426,  3360</quad4>
			<quad4 id="4">  3360,  3426,  3420,  3354</quad4>
			<quad4 id="5">  3354,  3420,  3414,  3348</quad4>
			<quad4 id="6">  3348,  3414,  3408,  3342</quad4>
			<quad4 id="7">  3342,  3408,  3402,  3336</quad4>
			<quad4 id="8">  3336,  3402,  3396,  3330</quad4>
			<quad4 id="9">  3330,  3396,  3390,  3324</quad4>
			<quad4 id="10">  3324,  3390,  3384,  3318</quad4>
			<quad4 id="11">  3444,  3510,  3504,  3438</quad4>
			<quad4 id="12">  3438,  3504,  3498,  3432</quad4>
			<quad4 id="13">  3432,  3498,  3492,  3426</quad4>
			<quad4 id="14">  3426,  3492,  3486,  3420</quad4>
			<quad4 id="15">  3420,  3486,  3480,  3414</quad4>
			<quad4 id="16">  3414,  3480,  3474,  3408</quad4>
			<quad4 id="17">  3408,  3474,  3468,  3402</quad4>
			<quad4 id="18">  3402,  3468,  3462,  3396</quad4>
			<quad4 id="19">  3396,  3462,  3456,  3390</quad4>
			<quad4 id="20">  3390,  3456,  3450,  3384</quad4>
<!-- ... 80 like lines cut -->
		</Surface>
		<Surface name="Bone:Expander_master">
			<quad4 id="1">  1290,  1518,  1259,  1238</quad4>
			<quad4 id="2">  1518,  1519,  1260,  1259</quad4>
			<quad4 id="3">  1519,  1520,  1261,  1260</quad4>
			<quad4 id="4">  1520,  1272,  1239,  1261</quad4>
			<quad4 id="5">  1289,  1515,  1518,  1290</quad4>
			<quad4 id="6">  1515,  1516,  1519,  1518</quad4>
			<quad4 id="7">  1516,  1517,  1520,  1519</quad4>
			<quad4 id="8">  1517,  1273,  1272,  1520</quad4>
			<quad4 id="9">  1288,  1512,  1515,  1289</quad4>
			<quad4 id="10">  1512,  1513,  1516,  1515</quad4>
			<quad4 id="11">  1513,  1514,  1517,  1516</quad4>
			<quad4 id="12">  1514,  1274,  1273,  1517</quad4>
			<quad4 id="13">  1241,  1282,  1512,  1288</quad4>
			<quad4 id="14">  1282,  1281,  1513,  1512</quad4>
			<quad4 id="15">  1281,  1280,  1514,  1513</quad4>
			<quad4 id="16">  1280,  1242,  1274,  1514</quad4>
			<quad4 id="17">  1272,  1572,  1291,  1239</quad4>
			<quad4 id="18">  1572,  1573,  1292,  1291</quad4>
			<quad4 id="19">  1573,  1574,  1293,  1292</quad4>
			<quad4 id="20">  1574,  1299,  1240,  1293</quad4>
<!-- ... 172 like lines cut -->
		</Surface>
		<Surface name="Bone:Expander_slave">
			<quad4 id="1">  2597,  2663,  2669,  2603</quad4>
			<quad4 id="2">  2603,  2669,  2675,  2609</quad4>
			<quad4 id="3">  2609,  2675,  2681,  2615</quad4>
			<quad4 id="4">  2615,  2681,  2687,  2621</quad4>
			<quad4 id="5">  2621,  2687,  2693,  2627</quad4>
			<quad4 id="6">  2627,  2693,  2699,  2633</quad4>
			<quad4 id="7">  2633,  2699,  2705,  2639</quad4>
			<quad4 id="8">  2639,  2705,  2711,  2645</quad4>
			<quad4 id="9">  2645,  2711,  2717,  2651</quad4>
			<quad4 id="10">  2651,  2717,  2723,  2657</quad4>
			<quad4 id="11">  2663,  2729,  2735,  2669</quad4>
			<quad4 id="12">  2669,  2735,  2741,  2675</quad4>
			<quad4 id="13">  2675,  2741,  2747,  2681</quad4>
			<quad4 id="14">  2681,  2747,  2753,  2687</quad4>
			<quad4 id="15">  2687,  2753,  2759,  2693</quad4>
			<quad4 id="16">  2693,  2759,  2765,  2699</quad4>
			<quad4 id="17">  2699,  2765,  2771,  2705</quad4>
			<quad4 id="18">  2705,  2771,  2777,  2711</quad4>
			<quad4 id="19">  2711,  2777,  2783,  2717</quad4>
			<quad4 id="20">  2717,  2783,  2789,  2723</quad4>
<!-- ... 80 like lines cut -->
		</Surface>
		<Surface name="PeriodicBoundary1_master">
			<quad4 id="1">  3318,  3384,  3385,  3319</quad4>
			<quad4 id="2">  3319,  3385,  3386,  3320</quad4>
			<quad4 id="3">  3320,  3386,  3387,  3321</quad4>
			<quad4 id="4">  3321,  3387,  3388,  3322</quad4>
			<quad4 id="5">  3322,  3388,  3389,  3323</quad4>
			<quad4 id="6">  3384,  3450,  3451,  3385</quad4>
			<quad4 id="7">  3385,  3451,  3452,  3386</quad4>
			<quad4 id="8">  3386,  3452,  3453,  3387</quad4>
			<quad4 id="9">  3387,  3453,  3454,  3388</quad4>
			<quad4 id="10">  3388,  3454,  3455,  3389</quad4>
			<quad4 id="11">  3450,  3516,  3517,  3451</quad4>
			<quad4 id="12">  3451,  3517,  3518,  3452</quad4>
			<quad4 id="13">  3452,  3518,  3519,  3453</quad4>
			<quad4 id="14">  3453,  3519,  3520,  3454</quad4>
			<quad4 id="15">  3454,  3520,  3521,  3455</quad4>
			<quad4 id="16">  3516,  3582,  3583,  3517</quad4>
			<quad4 id="17">  3517,  3583,  3584,  3518</quad4>
			<quad4 id="18">  3518,  3584,  3585,  3519</quad4>
			<quad4 id="19">  3519,  3585,  3586,  3520</quad4>
			<quad4 id="20">  3520,  3586,  3587,  3521</quad4>
<!-- ... 30 like lines cut -->
		</Surface>
		<Surface name="PeriodicBoundary1_slave">
			<quad4 id="1">  3444,  3378,  3379,  3445</quad4>
			<quad4 id="2">  3445,  3379,  3380,  3446</quad4>
			<quad4 id="3">  3446,  3380,  3381,  3447</quad4>
			<quad4 id="4">  3447,  3381,  3382,  3448</quad4>
			<quad4 id="5">  3448,  3382,  3383,  3449</quad4>
			<quad4 id="6">  3510,  3444,  3445,  3511</quad4>
			<quad4 id="7">  3511,  3445,  3446,  3512</quad4>
			<quad4 id="8">  3512,  3446,  3447,  3513</quad4>
			<quad4 id="9">  3513,  3447,  3448,  3514</quad4>
			<quad4 id="10">  3514,  3448,  3449,  3515</quad4>
			<quad4 id="11">  3576,  3510,  3511,  3577</quad4>
			<quad4 id="12">  3577,  3511,  3512,  3578</quad4>
			<quad4 id="13">  3578,  3512,  3513,  3579</quad4>
			<quad4 id="14">  3579,  3513,  3514,  3580</quad4>
			<quad4 id="15">  3580,  3514,  3515,  3581</quad4>
			<quad4 id="16">  3642,  3576,  3577,  3643</quad4>
			<quad4 id="17">  3643,  3577,  3578,  3644</quad4>
			<quad4 id="18">  3644,  3578,  3579,  3645</quad4>
			<quad4 id="19">  3645,  3579,  3580,  3646</quad4>
			<quad4 id="20">  3646,  3580,  3581,  3647</quad4>
<!-- ... 30 like lines cut -->
		</Surface>
		<Surface name="PeriodicBoundary2_master">
			<quad4 id="1">  3324,  3318,  3319,  3325</quad4>
			<quad4 id="2">  3325,  3319,  3320,  3326</quad4>
			<quad4 id="3">  3326,  3320,  3321,  3327</quad4>
			<quad4 id="4">  3327,  3321,  3322,  3328</quad4>
			<quad4 id="5">  3328,  3322,  3323,  3329</quad4>
			<quad4 id="6">  3330,  3324,  3325,  3331</quad4>
			<quad4 id="7">  3331,  3325,  3326,  3332</quad4>
			<quad4 id="8">  3332,  3326,  3327,  3333</quad4>
			<quad4 id="9">  3333,  3327,  3328,  3334</quad4>
			<quad4 id="10">  3334,  3328,  3329,  3335</quad4>
			<quad4 id="11">  3336,  3330,  3331,  3337</quad4>
			<quad4 id="12">  3337,  3331,  3332,  3338</quad4>
			<quad4 id="13">  3338,  3332,  3333,  3339</quad4>
			<quad4 id="14">  3339,  3333,  3334,  3340</quad4>
			<quad4 id="15">  3340,  3334,  3335,  3341</quad4>
			<quad4 id="16">  3342,  3336,  3337,  3343</quad4>
			<quad4 id="17">  3343,  3337,  3338,  3344</quad4>
			<quad4 id="18">  3344,  3338,  3339,  3345</quad4>
			<quad4 id="19">  3345,  3339,  3340,  3346</quad4>
			<quad4 id="20">  3346,  3340,  3341,  3347</quad4>
<!-- ... 30 like lines cut -->
		</Surface>
		<Surface name="PeriodicBoundary2_slave">
			<quad4 id="1">  3324,  3318,  3319,  3325</quad4>
			<quad4 id="2">  3325,  3319,  3320,  3326</quad4>
			<quad4 id="3">  3326,  3320,  3321,  3327</quad4>
			<quad4 id="4">  3327,  3321,  3322,  3328</quad4>
			<quad4 id="5">  3328,  3322,  3323,  3329</quad4>
			<quad4 id="6">  3330,  3324,  3325,  3331</quad4>
			<quad4 id="7">  3331,  3325,  3326,  3332</quad4>
			<quad4 id="8">  3332,  3326,  3327,  3333</quad4>
			<quad4 id="9">  3333,  3327,  3328,  3334</quad4>
			<quad4 id="10">  3334,  3328,  3329,  3335</quad4>
			<quad4 id="11">  3336,  3330,  3331,  3337</quad4>
			<quad4 id="12">  3337,  3331,  3332,  3338</quad4>
			<quad4 id="13">  3338,  3332,  3333,  3339</quad4>
			<quad4 id="14">  3339,  3333,  3334,  3340</quad4>
			<quad4 id="15">  3340,  3334,  3335,  3341</quad4>
			<quad4 id="16">  3342,  3336,  3337,  3343</quad4>
			<quad4 id="17">  3343,  3337,  3338,  3344</quad4>
			<quad4 id="18">  3344,  3338,  3339,  3345</quad4>
			<quad4 id="19">  3345,  3339,  3340,  3346</quad4>
			<quad4 id="20">  3346,  3340,  3341,  3347</quad4>
<!-- ... 80 like lines cut -->
		</Surface>
		<Surface name="PeriodicBoundary3_master">
			<quad4 id="1">  3252,  3258,  3259,  3253</quad4>
			<quad4 id="2">  3253,  3259,  3260,  3254</quad4>
			<quad4 id="3">  3254,  3260,  3261,  3255</quad4>
			<quad4 id="4">  3255,  3261,  3262,  3256</quad4>
			<quad4 id="5">  3256,  3262,  3263,  3257</quad4>
			<quad4 id="6">  3258,  3264,  3265,  3259</quad4>
			<quad4 id="7">  3259,  3265,  3266,  3260</quad4>
			<quad4 id="8">  3260,  3266,  3267,  3261</quad4>
			<quad4 id="9">  3261,  3267,  3268,  3262</quad4>
			<quad4 id="10">  3262,  3268,  3269,  3263</quad4>
			<quad4 id="11">  3264,  3270,  3271,  3265</quad4>
			<quad4 id="12">  3265,  3271,  3272,  3266</quad4>
			<quad4 id="13">  3266,  3272,  3273,  3267</quad4>
			<quad4 id="14">  3267,  3273,  3274,  3268</quad4>
			<quad4 id="15">  3268,  3274,  3275,  3269</quad4>
			<quad4 id="16">  3270,  3276,  3277,  3271</quad4>
			<quad4 id="17">  3271,  3277,  3278,  3272</quad4>
			<quad4 id="18">  3272,  3278,  3279,  3273</quad4>
			<quad4 id="19">  3273,  3279,  3280,  3274</quad4>
			<quad4 id="20">  3274,  3280,  3281,  3275</quad4>
<!-- ... 30 like lines cut -->
		</Surface>
		<Surface name="PeriodicBoundary3_slave">
			<quad4 id="1">  2598,  2592,  2593,  2599</quad4>
			<quad4 id="2">  2599,  2593,  2594,  2600</quad4>
			<quad4 id="3">  2600,  2594,  2595,  2601</quad4>
			<quad4 id="4">  2601,  2595,  2596,  2602</quad4>
			<quad4 id="5">  2602,  2596,  2597,  2603</quad4>
			<quad4 id="6">  2604,  2598,  2599,  2605</quad4>
			<quad4 id="7">  2605,  2599,  2600,  2606</quad4>
			<quad4 id="8">  2606,  2600,  2601,  2607</quad4>
			<quad4 id="9">  2607,  2601,  2602,  2608</quad4>
			<quad4 id="10">  2608,  2602,  2603,  2609</quad4>
			<quad4 id="11">  2610,  2604,  2605,  2611</quad4>
			<quad4 id="12">  2611,  2605,  2606,  2612</quad4>
			<quad4 id="13">  2612,  2606,  2607,  2613</quad4>
			<quad4 id="14">  2613,  2607,  2608,  2614</quad4>
			<quad4 id="15">  2614,  2608,  2609,  2615</quad4>
			<quad4 id="16">  2616,  2610,  2611,  2617</quad4>
			<quad4 id="17">  2617,  2611,  2612,  2618</quad4>
			<quad4 id="18">  2618,  2612,  2613,  2619</quad4>
			<quad4 id="19">  2619,  2613,  2614,  2620</quad4>
			<quad4 id="20">  2620,  2614,  2615,  2621</quad4>
<!-- ... 30 like lines cut -->
		</Surface>
		<Surface name="PeriodicBoundary4_master">
			<quad4 id="1">  2598,  2592,  2593,  2599</quad4>
			<quad4 id="2">  2599,  2593,  2594,  2600</quad4>
			<quad4 id="3">  2600,  2594,  2595,  2601</quad4>
			<quad4 id="4">  2601,  2595,  2596,  2602</quad4>
			<quad4 id="5">  2602,  2596,  2597,  2603</quad4>
			<quad4 id="6">  2604,  2598,  2599,  2605</quad4>
			<quad4 id="7">  2605,  2599,  2600,  2606</quad4>
			<quad4 id="8">  2606,  2600,  2601,  2607</quad4>
			<quad4 id="9">  2607,  2601,  2602,  2608</quad4>
			<quad4 id="10">  2608,  2602,  2603,  2609</quad4>
			<quad4 id="11">  2610,  2604,  2605,  2611</quad4>
			<quad4 id="12">  2611,  2605,  2606,  2612</quad4>
			<quad4 id="13">  2612,  2606,  2607,  2613</quad4>
			<quad4 id="14">  2613,  2607,  2608,  2614</quad4>
			<quad4 id="15">  2614,  2608,  2609,  2615</quad4>
			<quad4 id="16">  2616,  2610,  2611,  2617</quad4>
			<quad4 id="17">  2617,  2611,  2612,  2618</quad4>
			<quad4 id="18">  2618,  2612,  2613,  2619</quad4>
			<quad4 id="19">  2619,  2613,  2614,  2620</quad4>
			<quad4 id="20">  2620,  2614,  2615,  2621</quad4>
<!-- ... 30 like lines cut -->
		</Surface>
		<Surface name="PeriodicBoundary4_slave">
			<quad4 id="1">  3252,  3258,  3259,  3253</quad4>
			<quad4 id="2">  3253,  3259,  3260,  3254</quad4>
			<quad4 id="3">  3254,  3260,  3261,  3255</quad4>
			<quad4 id="4">  3255,  3261,  3262,  3256</quad4>
			<quad4 id="5">  3256,  3262,  3263,  3257</quad4>
			<quad4 id="6">  3258,  3264,  3265,  3259</quad4>
			<quad4 id="7">  3259,  3265,  3266,  3260</quad4>
			<quad4 id="8">  3260,  3266,  3267,  3261</quad4>
			<quad4 id="9">  3261,  3267,  3268,  3262</quad4>
			<quad4 id="10">  3262,  3268,  3269,  3263</quad4>
			<quad4 id="11">  3264,  3270,  3271,  3265</quad4>
			<quad4 id="12">  3265,  3271,  3272,  3266</quad4>
			<quad4 id="13">  3266,  3272,  3273,  3267</quad4>
			<quad4 id="14">  3267,  3273,  3274,  3268</quad4>
			<quad4 id="15">  3268,  3274,  3275,  3269</quad4>
			<quad4 id="16">  3270,  3276,  3277,  3271</quad4>
			<quad4 id="17">  3271,  3277,  3278,  3272</quad4>
			<quad4 id="18">  3272,  3278,  3279,  3273</quad4>
			<quad4 id="19">  3273,  3279,  3280,  3274</quad4>
			<quad4 id="20">  3274,  3280,  3281,  3275</quad4>
<!-- ... 30 like lines cut -->
		</Surface>
		<SurfacePair name="Mucosa:Expander">
			<master surface="Mucosa:Expander_master"/>
			<slave surface="Mucosa:Expander_slave"/>
		</SurfacePair>
		<SurfacePair name="Bone:Expander">
			<master surface="Bone:Expander_master"/>
			<slave surface="Bone:Expander_slave"/>
		</SurfacePair>
		<SurfacePair name="PeriodicBoundary1">
			<master surface="PeriodicBoundary1_master"/>
			<slave surface="PeriodicBoundary1_slave"/>
		</SurfacePair>
		<SurfacePair name="PeriodicBoundary2">
			<master surface="PeriodicBoundary2_master"/>
			<slave surface="PeriodicBoundary2_slave"/>
		</SurfacePair>
		<SurfacePair name="PeriodicBoundary3">
			<master surface="PeriodicBoundary3_master"/>
			<slave surface="PeriodicBoundary3_slave"/>
		</SurfacePair>
		<SurfacePair name="PeriodicBoundary4">
			<master surface="PeriodicBoundary4_master"/>
			<slave surface="PeriodicBoundary4_slave"/>
		</SurfacePair>
	</Geometry>
	<Boundary>
		<fix bc="x,y" node_set="MucosaFixed"/>
		<fix bc="x,y,z" node_set="BoneFixed"/>
		<fix bc="x,y,z" node_set="ExFixed"/>
		<fix bc="u,v,w" node_set="ExRotationFiex"/>
		<prescribe bc="z" node_set="MucosaMovement">
			<scale lc="1">1</scale>
			<relative>0</relative>
		</prescribe>
	</Boundary>
	<Contact>
		<contact type="sliding-facet-on-facet" name="Mucosa:Expander" surface_pair="Mucosa:Expander">
			<laugon>0</laugon>
			<tolerance>0.2</tolerance>
			<penalty>10000</penalty>
			<two_pass>0</two_pass>
			<auto_penalty>0</auto_penalty>
			<fric_coeff>0</fric_coeff>
			<fric_penalty>0</fric_penalty>
			<search_tol>0.01</search_tol>
			<minaug>0</minaug>
			<maxaug>10</maxaug>
			<gaptol>0</gaptol>
			<seg_up>0</seg_up>
		</contact>
		<contact type="sliding-facet-on-facet" name="Bone:Expander" surface_pair="Bone:Expander">
			<laugon>0</laugon>
			<tolerance>0.2</tolerance>
			<penalty>3000</penalty>
			<two_pass>0</two_pass>
			<auto_penalty>0</auto_penalty>
			<fric_coeff>0</fric_coeff>
			<fric_penalty>0</fric_penalty>
			<search_tol>0.01</search_tol>
			<minaug>0</minaug>
			<maxaug>10</maxaug>
			<gaptol>0</gaptol>
			<seg_up>0</seg_up>
		</contact>
		<contact type="periodic boundary" name="PeriodicBoundary1" surface_pair="PeriodicBoundary1">
			<laugon>0</laugon>
			<tolerance>0.2</tolerance>
			<penalty>1</penalty>
			<two_pass>0</two_pass>
		</contact>
		<contact type="periodic boundary" name="PeriodicBoundary2" surface_pair="PeriodicBoundary2">
			<laugon>0</laugon>
			<tolerance>0.2</tolerance>
			<penalty>1</penalty>
			<two_pass>0</two_pass>
		</contact>
		<contact type="periodic boundary" name="PeriodicBoundary3" surface_pair="PeriodicBoundary3">
			<laugon>0</laugon>
			<tolerance>0.2</tolerance>
			<penalty>1</penalty>
			<two_pass>0</two_pass>
		</contact>
		<contact type="periodic boundary" name="PeriodicBoundary4" surface_pair="PeriodicBoundary4">
			<laugon>0</laugon>
			<tolerance>0.2</tolerance>
			<penalty>1</penalty>
			<two_pass>0</two_pass>
		</contact>
	</Contact>
	<LoadData>
		<loadcurve id="1" type="linear">
			<point>0,0</point>
			<point>1.00821917808,-2.98722044728</point>
			<point>1.9,-3</point>
			<point>2,0</point>
		</loadcurve>
	</LoadData>
	<Output>
		<logfile> 
	 		<!-- <rigid_body_data
	 		 data="x;y;z" name = "rigid_body_coords" delim="	" file="rigid_body_coords.txt">cone></rigid_body_data>
			<rigid_body_data data="Fx;Fy;Fz" delim="	" file="rigid_body_rxn_F.txt">1:100:1></rigid_body_data>   -->
			<element_data 
			data="Fxx;Fyy;Fzz" delim="," file="Deformation.txt"></element_data>
			<element_data 
			data="Ex;Ey" delim="," file="StrainXandY.txt"></element_data>
			<element_data 
			data="x;y;z" delim="," file="element_coords.txt"></element_data>
		</logfile> 
		<plotfile type="febio">
			<var type="displacement"/>
			<var type="stress"/>
		</plotfile> 
	</Output>
</febio_spec>
